<?xml version="1.0" encoding="UTF-8"?>

<!-- generated on 2025-03-14 23:14:30 by Eclipse SUMO netconvert Version 1.21.0
<netconvertConfiguration xmlns:xsi="http://www.w3.org/2001/XMLSchema-instance" xsi:noNamespaceSchemaLocation="http://sumo.dlr.de/xsd/netconvertConfiguration.xsd">

    <input>
        <type-files value="${SUMO_HOME}\data\typemap\osmNetconvert.typ.xml"/>
        <osm-files value="osm_bbox.osm.xml.gz"/>
    </input>

    <output>
        <output-file value="osm.net.xml.gz"/>
        <output.street-names value="true"/>
        <output.original-names value="true"/>
    </output>

    <projection>
        <proj.utm value="true"/>
    </projection>

    <processing>
        <geometry.remove value="true"/>
        <roundabouts.guess value="true"/>
    </processing>

    <tls_building>
        <tls.discard-simple value="true"/>
        <tls.join value="true"/>
        <tls.guess-signals value="true"/>
        <tls.default-type value="actuated"/>
    </tls_building>

    <ramp_guessing>
        <ramps.guess value="true"/>
    </ramp_guessing>

    <junctions>
        <junctions.join value="true"/>
        <junctions.corner-detail value="5"/>
    </junctions>

</netconvertConfiguration>
-->

<net version="1.20" junctionCornerDetail="5" limitTurnSpeed="5.50" xmlns:xsi="http://www.w3.org/2001/XMLSchema-instance" xsi:noNamespaceSchemaLocation="http://sumo.dlr.de/xsd/net_file.xsd">

    <location netOffset="-293956.18,-2745384.79" convBoundary="0.00,0.00,1252.73,783.12" origBoundary="120.961521,24.809566,120.973888,24.816545" projParameter="+proj=utm +zone=51 +ellps=WGS84 +datum=WGS84 +units=m +no_defs"/>

    <type id="highway.footway" priority="1" numLanes="1" speed="2.78" allow="pedestrian" oneway="1" width="2.00"/>
    <type id="highway.path" priority="1" numLanes="1" speed="5.56" allow="pedestrian bicycle" oneway="0" width="2.00"/>
    <type id="highway.pedestrian" priority="1" numLanes="1" speed="2.78" allow="pedestrian" oneway="1" width="2.00"/>
    <type id="highway.primary" priority="12" numLanes="2" speed="27.78" disallow="tram rail_urban rail rail_electric rail_fast ship container cable_car subway aircraft wheelchair scooter drone" oneway="0"/>
    <type id="highway.residential" priority="3" numLanes="1" speed="13.89" disallow="tram rail_urban rail rail_electric rail_fast ship container cable_car subway aircraft wheelchair scooter drone" oneway="0"/>
    <type id="highway.secondary" priority="11" numLanes="1" speed="27.78" disallow="tram rail_urban rail rail_electric rail_fast ship container cable_car subway aircraft wheelchair scooter drone" oneway="0"/>
    <type id="highway.service" priority="1" numLanes="1" speed="5.56" allow="pedestrian delivery bicycle" oneway="0"/>
    <type id="highway.steps" priority="1" numLanes="1" speed="1.39" allow="pedestrian" oneway="1" width="2.00"/>
    <type id="highway.tertiary" priority="10" numLanes="1" speed="22.22" disallow="tram rail_urban rail rail_electric rail_fast ship container cable_car subway aircraft wheelchair scooter drone" oneway="0"/>
    <type id="highway.trunk" priority="13" numLanes="2" speed="27.78" disallow="pedestrian bicycle tram rail_urban rail rail_electric rail_fast ship container cable_car subway aircraft wheelchair scooter drone" oneway="0"/>

    <edge id=":1079387225_0" function="internal">
        <lane id=":1079387225_0_0" index="0" disallow="tram rail_urban rail rail_electric rail_fast ship container cable_car subway aircraft wheelchair scooter drone" speed="6.71" length="9.36" shape="1055.21,289.40 1052.88,288.33 1050.74,288.24 1048.81,289.12 1047.08,290.97"/>
    </edge>
    <edge id=":1079387225_1" function="internal">
        <lane id=":1079387225_1_0" index="0" disallow="tram rail_urban rail rail_electric rail_fast ship container cable_car subway aircraft wheelchair scooter drone" speed="22.22" length="14.59" shape="1055.21,289.40 1043.01,281.38"/>
    </edge>
    <edge id=":1079387225_2" function="internal">
        <lane id=":1079387225_2_0" index="0" disallow="tram rail_urban rail rail_electric rail_fast ship container cable_car subway aircraft wheelchair scooter drone" speed="7.94" length="4.19" shape="1055.21,289.40 1052.22,286.83 1052.11,286.60"/>
    </edge>
    <edge id=":1079387225_3" function="internal">
        <lane id=":1079387225_3_0" index="0" disallow="tram rail_urban rail rail_electric rail_fast ship container cable_car subway aircraft wheelchair scooter drone" speed="3.65" length="1.44" shape="1055.21,289.40 1054.63,288.08"/>
    </edge>
    <edge id=":1079387225_16" function="internal">
        <lane id=":1079387225_16_0" index="0" disallow="tram rail_urban rail rail_electric rail_fast ship container cable_car subway aircraft wheelchair scooter drone" speed="7.94" length="10.13" shape="1052.11,286.60 1050.81,283.93 1050.98,280.72 1052.73,277.18"/>
    </edge>
    <edge id=":1079387225_17" function="internal">
        <lane id=":1079387225_17_0" index="0" disallow="tram rail_urban rail rail_electric rail_fast ship container cable_car subway aircraft wheelchair scooter drone" speed="3.65" length="3.23" shape="1054.63,288.08 1054.72,287.19 1055.49,286.73 1056.93,286.70"/>
    </edge>
    <edge id=":1079387225_4" function="internal">
        <lane id=":1079387225_4_0" index="0" disallow="tram rail_urban rail rail_electric rail_fast ship container cable_car subway aircraft wheelchair scooter drone" speed="6.43" length="9.03" shape="1055.37,279.00 1054.27,281.23 1054.16,283.25 1055.05,285.08 1056.93,286.70"/>
    </edge>
    <edge id=":1079387225_5" function="internal">
        <lane id=":1079387225_5_0" index="0" disallow="tram rail_urban rail rail_electric rail_fast ship container cable_car subway aircraft wheelchair scooter drone" speed="13.89" length="14.56" shape="1055.37,279.00 1047.08,290.97"/>
    </edge>
    <edge id=":1079387225_6" function="internal">
        <lane id=":1079387225_6_0" index="0" disallow="tram rail_urban rail rail_electric rail_fast ship container cable_car subway aircraft wheelchair scooter drone" speed="8.06" length="4.14" shape="1055.37,279.00 1052.71,281.90 1052.52,281.98"/>
    </edge>
    <edge id=":1079387225_7" function="internal">
        <lane id=":1079387225_7_0" index="0" disallow="tram rail_urban rail rail_electric rail_fast ship container cable_car subway aircraft wheelchair scooter drone" speed="3.65" length="1.44" shape="1055.37,279.00 1054.03,279.53"/>
    </edge>
    <edge id=":1079387225_18" function="internal">
        <lane id=":1079387225_18_0" index="0" disallow="tram rail_urban rail rail_electric rail_fast ship container cable_car subway aircraft wheelchair scooter drone" speed="8.06" length="10.19" shape="1052.52,281.98 1049.76,283.26 1046.53,283.09 1043.01,281.38"/>
    </edge>
    <edge id=":1079387225_19" function="internal">
        <lane id=":1079387225_19_0" index="0" disallow="tram rail_urban rail rail_electric rail_fast ship container cable_car subway aircraft wheelchair scooter drone" speed="3.65" length="3.23" shape="1054.03,279.53 1053.14,279.41 1052.71,278.63 1052.73,277.18"/>
    </edge>
    <edge id=":1079387225_8" function="internal">
        <lane id=":1079387225_8_0" index="0" disallow="tram rail_urban rail rail_electric rail_fast ship container cable_car subway aircraft wheelchair scooter drone" speed="6.58" length="9.19" shape="1044.81,278.73 1047.06,279.82 1049.13,279.93 1051.02,279.05 1052.73,277.18"/>
    </edge>
    <edge id=":1079387225_9" function="internal">
        <lane id=":1079387225_9_0" index="0" disallow="tram rail_urban rail rail_electric rail_fast ship container cable_car subway aircraft wheelchair scooter drone" speed="22.22" length="14.51" shape="1044.81,278.73 1056.93,286.70"/>
    </edge>
    <edge id=":1079387225_10" function="internal">
        <lane id=":1079387225_10_0" index="0" disallow="tram rail_urban rail rail_electric rail_fast ship container cable_car subway aircraft wheelchair scooter drone" speed="7.98" length="3.91" shape="1044.81,278.73 1047.70,281.36"/>
    </edge>
    <edge id=":1079387225_11" function="internal">
        <lane id=":1079387225_11_0" index="0" disallow="tram rail_urban rail rail_electric rail_fast ship container cable_car subway aircraft wheelchair scooter drone" speed="3.65" length="1.44" shape="1044.81,278.73 1045.35,280.07"/>
    </edge>
    <edge id=":1079387225_20" function="internal">
        <lane id=":1079387225_20_0" index="0" disallow="tram rail_urban rail rail_electric rail_fast ship container cable_car subway aircraft wheelchair scooter drone" speed="7.98" length="10.33" shape="1047.70,281.36 1049.05,284.28 1048.84,287.48 1047.08,290.97"/>
    </edge>
    <edge id=":1079387225_21" function="internal">
        <lane id=":1079387225_21_0" index="0" disallow="tram rail_urban rail rail_electric rail_fast ship container cable_car subway aircraft wheelchair scooter drone" speed="3.65" length="3.23" shape="1045.35,280.07 1045.24,280.95 1044.46,281.39 1043.01,281.38"/>
    </edge>
    <edge id=":1079387225_12" function="internal">
        <lane id=":1079387225_12_0" index="0" disallow="tram rail_urban rail rail_electric rail_fast ship container cable_car subway aircraft wheelchair scooter drone" speed="6.48" length="9.03" shape="1044.46,289.14 1045.57,286.93 1045.70,284.90 1044.85,283.05 1043.01,281.38"/>
    </edge>
    <edge id=":1079387225_13" function="internal">
        <lane id=":1079387225_13_0" index="0" disallow="tram rail_urban rail rail_electric rail_fast ship container cable_car subway aircraft wheelchair scooter drone" speed="13.89" length="14.54" shape="1044.46,289.14 1052.73,277.18"/>
    </edge>
    <edge id=":1079387225_14" function="internal">
        <lane id=":1079387225_14_0" index="0" disallow="tram rail_urban rail rail_electric rail_fast ship container cable_car subway aircraft wheelchair scooter drone" speed="8.17" length="4.06" shape="1044.46,289.14 1047.12,286.29 1047.26,286.23"/>
    </edge>
    <edge id=":1079387225_15" function="internal">
        <lane id=":1079387225_15_0" index="0" disallow="tram rail_urban rail rail_electric rail_fast ship container cable_car subway aircraft wheelchair scooter drone" speed="3.65" length="1.44" shape="1044.46,289.14 1045.80,288.62"/>
    </edge>
    <edge id=":1079387225_22" function="internal">
        <lane id=":1079387225_22_0" index="0" disallow="tram rail_urban rail rail_electric rail_fast ship container cable_car subway aircraft wheelchair scooter drone" speed="8.17" length="10.31" shape="1047.26,286.23 1050.09,284.93 1053.36,285.07 1056.93,286.70"/>
    </edge>
    <edge id=":1079387225_23" function="internal">
        <lane id=":1079387225_23_0" index="0" disallow="tram rail_urban rail rail_electric rail_fast ship container cable_car subway aircraft wheelchair scooter drone" speed="3.65" length="3.23" shape="1045.80,288.62 1046.68,288.75 1047.11,289.53 1047.08,290.97"/>
    </edge>
    <edge id=":1084307145_0" function="internal">
        <lane id=":1084307145_0_0" index="0" allow="pedestrian delivery bicycle" speed="5.27" length="5.44" shape="246.11,66.25 244.62,65.66 243.33,65.61 242.25,66.11 241.38,67.16"/>
    </edge>
    <edge id=":1084307145_1" function="internal">
        <lane id=":1084307145_1_0" index="0" allow="pedestrian delivery bicycle" speed="5.56" length="10.13" shape="246.11,66.25 243.48,64.82 241.70,63.77 239.98,62.60 237.58,60.82"/>
    </edge>
    <edge id=":1084307145_2" function="internal">
        <lane id=":1084307145_2_0" index="0" allow="pedestrian delivery bicycle" speed="6.76" length="10.89" shape="246.11,66.25 243.67,64.43 242.52,62.33 242.67,59.93 244.12,57.25"/>
    </edge>
    <edge id=":1084307145_3" function="internal">
        <lane id=":1084307145_3_0" index="0" allow="pedestrian delivery bicycle" speed="3.65" length="4.67" shape="246.11,66.25 245.44,64.98 245.47,64.08 246.20,63.57 247.64,63.44"/>
    </edge>
    <edge id=":1084307145_4" function="internal">
        <lane id=":1084307145_4_0" index="0" allow="pedestrian delivery bicycle" speed="4.90" length="5.18" shape="246.69,59.16 246.00,60.44 245.93,61.57 246.47,62.58 247.64,63.44"/>
    </edge>
    <edge id=":1084307145_5" function="internal">
        <lane id=":1084307145_5_0" index="0" disallow="tram rail_urban rail rail_electric rail_fast ship container cable_car subway aircraft wheelchair scooter drone" speed="13.89" length="9.61" shape="246.69,59.16 244.99,61.45 243.87,63.05 242.83,64.70 241.38,67.16"/>
    </edge>
    <edge id=":1084307145_6" function="internal">
        <lane id=":1084307145_6_0" index="0" allow="pedestrian delivery bicycle" speed="6.97" length="1.85" shape="246.69,59.16 245.40,60.49"/>
    </edge>
    <edge id=":1084307145_14" function="internal">
        <lane id=":1084307145_14_0" index="0" allow="pedestrian delivery bicycle" speed="6.97" length="8.72" shape="245.40,60.49 244.60,61.31 242.39,62.30 240.05,62.14 237.58,60.82"/>
    </edge>
    <edge id=":1084307145_7" function="internal">
        <lane id=":1084307145_7_0" index="0" allow="pedestrian delivery bicycle" speed="5.19" length="5.39" shape="239.50,58.26 240.72,58.90 241.90,58.94 243.03,58.39 244.12,57.25"/>
    </edge>
    <edge id=":1084307145_8" function="internal">
        <lane id=":1084307145_8_0" index="0" allow="pedestrian delivery bicycle" speed="5.56" length="9.66" shape="239.50,58.26 241.80,59.97 243.43,61.07 245.12,62.07 247.64,63.44"/>
    </edge>
    <edge id=":1084307145_9" function="internal">
        <lane id=":1084307145_9_0" index="0" allow="pedestrian delivery bicycle" speed="7.16" length="10.13" shape="239.50,58.26 241.46,60.20 242.43,62.33 242.40,64.65 241.38,67.16"/>
    </edge>
    <edge id=":1084307145_10" function="internal">
        <lane id=":1084307145_10_0" index="0" allow="pedestrian delivery bicycle" speed="3.65" length="4.67" shape="239.50,58.26 239.98,59.62 239.82,60.50 239.02,60.90 237.58,60.82"/>
    </edge>
    <edge id=":1084307145_11" function="internal">
        <lane id=":1084307145_11_0" index="0" allow="pedestrian delivery bicycle" speed="5.42" length="5.40" shape="238.61,65.56 239.15,64.22 239.16,62.99 238.63,61.85 237.58,60.82"/>
    </edge>
    <edge id=":1084307145_12" function="internal">
        <lane id=":1084307145_12_0" index="0" disallow="tram rail_urban rail rail_electric rail_fast ship container cable_car subway aircraft wheelchair scooter drone" speed="13.89" length="9.97" shape="238.61,65.56 240.11,63.00 241.19,61.29 242.36,59.63 244.12,57.25"/>
    </edge>
    <edge id=":1084307145_13" function="internal">
        <lane id=":1084307145_13_0" index="0" allow="pedestrian delivery bicycle" speed="7.03" length="1.95" shape="238.61,65.56 239.84,64.04"/>
    </edge>
    <edge id=":1084307145_15" function="internal">
        <lane id=":1084307145_15_0" index="0" allow="pedestrian delivery bicycle" speed="7.03" length="8.54" shape="239.84,64.04 240.34,63.42 242.42,62.36 244.85,62.37 247.64,63.44"/>
    </edge>
    <edge id=":1084307267_0" function="internal">
        <lane id=":1084307267_0_0" index="0" disallow="tram rail_urban rail rail_electric rail_fast ship container cable_car subway aircraft wheelchair scooter drone" speed="22.22" length="14.40" shape="405.28,121.50 397.17,133.40"/>
    </edge>
    <edge id=":1084307267_1" function="internal">
        <lane id=":1084307267_1_0" index="0" disallow="tram rail_urban rail rail_electric rail_fast ship container cable_car subway aircraft wheelchair scooter drone" speed="8.01" length="4.06" shape="405.28,121.50 402.66,124.37 402.50,124.44"/>
    </edge>
    <edge id=":1084307267_2" function="internal">
        <lane id=":1084307267_2_0" index="0" disallow="tram rail_urban rail rail_electric rail_fast ship container cable_car subway aircraft wheelchair scooter drone" speed="3.65" length="1.44" shape="405.28,121.50 403.94,122.04"/>
    </edge>
    <edge id=":1084307267_9" function="internal">
        <lane id=":1084307267_9_0" index="0" disallow="tram rail_urban rail rail_electric rail_fast ship container cable_car subway aircraft wheelchair scooter drone" speed="8.01" length="10.13" shape="402.50,124.44 399.75,125.71 396.54,125.53 393.05,123.82"/>
    </edge>
    <edge id=":1084307267_10" function="internal">
        <lane id=":1084307267_10_0" index="0" disallow="tram rail_urban rail rail_electric rail_fast ship container cable_car subway aircraft wheelchair scooter drone" speed="3.65" length="3.23" shape="403.94,122.04 403.06,121.92 402.62,121.14 402.63,119.70"/>
    </edge>
    <edge id=":1084307267_3" function="internal">
        <lane id=":1084307267_3_0" index="0" disallow="tram rail_urban rail rail_electric rail_fast ship container cable_car subway aircraft wheelchair scooter drone" speed="6.51" length="9.04" shape="394.84,121.17 397.07,122.26 399.11,122.38 400.97,121.52 402.63,119.70"/>
    </edge>
    <edge id=":1084307267_4" function="internal">
        <lane id=":1084307267_4_0" index="0" disallow="tram rail_urban rail rail_electric rail_fast ship container cable_car subway aircraft wheelchair scooter drone" speed="8.00" length="14.20" shape="394.84,121.17 397.72,123.79 399.07,126.70 398.89,129.91 397.17,133.40"/>
    </edge>
    <edge id=":1084307267_5" function="internal">
        <lane id=":1084307267_5_0" index="0" disallow="tram rail_urban rail rail_electric rail_fast ship container cable_car subway aircraft wheelchair scooter drone" speed="3.65" length="4.67" shape="394.84,121.17 395.39,122.51 395.27,123.40 394.49,123.83 393.05,123.82"/>
    </edge>
    <edge id=":1084307267_6" function="internal">
        <lane id=":1084307267_6_0" index="0" disallow="tram rail_urban rail rail_electric rail_fast ship container cable_car subway aircraft wheelchair scooter drone" speed="6.50" length="9.03" shape="394.53,131.60 395.62,129.37 395.73,127.34 394.88,125.49 393.05,123.82"/>
    </edge>
    <edge id=":1084307267_7" function="internal">
        <lane id=":1084307267_7_0" index="0" disallow="tram rail_urban rail rail_electric rail_fast ship container cable_car subway aircraft wheelchair scooter drone" speed="22.22" length="14.40" shape="394.53,131.60 402.63,119.70"/>
    </edge>
    <edge id=":1084307267_8" function="internal">
        <lane id=":1084307267_8_0" index="0" disallow="tram rail_urban rail rail_electric rail_fast ship container cable_car subway aircraft wheelchair scooter drone" speed="3.65" length="1.44" shape="394.53,131.60 395.86,131.06"/>
    </edge>
    <edge id=":1084307267_11" function="internal">
        <lane id=":1084307267_11_0" index="0" disallow="tram rail_urban rail rail_electric rail_fast ship container cable_car subway aircraft wheelchair scooter drone" speed="3.65" length="3.23" shape="395.86,131.06 396.75,131.18 397.19,131.96 397.17,133.40"/>
    </edge>
    <edge id=":1084308801_0" function="internal">
        <lane id=":1084308801_0_0" index="0" disallow="tram rail_urban rail rail_electric rail_fast ship container cable_car subway aircraft wheelchair scooter drone" speed="6.96" length="10.34" shape="371.03,108.87 368.27,107.43 365.84,107.07 363.72,107.78 361.92,109.56"/>
    </edge>
    <edge id=":1084308801_1" function="internal">
        <lane id=":1084308801_1_0" index="0" disallow="tram rail_urban rail rail_electric rail_fast ship container cable_car subway aircraft wheelchair scooter drone" speed="13.89" length="15.87" shape="371.03,108.87 357.90,99.96"/>
    </edge>
    <edge id=":1084308801_2" function="internal">
        <lane id=":1084308801_2_0" index="0" disallow="tram rail_urban rail rail_electric rail_fast ship container cable_car subway aircraft wheelchair scooter drone" speed="7.56" length="4.35" shape="371.03,108.87 367.83,105.93"/>
    </edge>
    <edge id=":1084308801_3" function="internal">
        <lane id=":1084308801_3_0" index="0" disallow="tram rail_urban rail rail_electric rail_fast ship container cable_car subway aircraft wheelchair scooter drone" speed="3.65" length="1.44" shape="371.03,108.87 370.48,107.54"/>
    </edge>
    <edge id=":1084308801_16" function="internal">
        <lane id=":1084308801_16_0" index="0" disallow="tram rail_urban rail rail_electric rail_fast ship container cable_car subway aircraft wheelchair scooter drone" speed="7.56" length="11.11" shape="367.83,105.93 366.74,102.87 367.76,99.70 370.89,96.42"/>
    </edge>
    <edge id=":1084308801_17" function="internal">
        <lane id=":1084308801_17_0" index="0" disallow="tram rail_urban rail rail_electric rail_fast ship container cable_car subway aircraft wheelchair scooter drone" speed="3.65" length="3.23" shape="370.48,107.54 370.60,106.65 371.38,106.21 372.82,106.22"/>
    </edge>
    <edge id=":1084308801_4" function="internal">
        <lane id=":1084308801_4_0" index="0" disallow="tram rail_urban rail rail_electric rail_fast ship container cable_car subway aircraft wheelchair scooter drone" speed="5.91" length="8.93" shape="372.75,99.03 370.94,100.93 370.35,102.76 370.98,104.52 372.82,106.22"/>
    </edge>
    <edge id=":1084308801_5" function="internal">
        <lane id=":1084308801_5_0" index="0" disallow="tram rail_urban rail rail_electric rail_fast ship container cable_car subway aircraft wheelchair scooter drone" speed="13.89" length="15.15" shape="372.75,99.03 369.81,101.42 366.95,103.93 364.28,106.63 361.92,109.56"/>
    </edge>
    <edge id=":1084308801_6" function="internal">
        <lane id=":1084308801_6_0" index="0" disallow="tram rail_urban rail rail_electric rail_fast ship container cable_car subway aircraft wheelchair scooter drone" speed="9.47" length="15.61" shape="372.75,99.03 369.37,100.78 365.31,101.55 361.25,101.29 357.90,99.96"/>
    </edge>
    <edge id=":1084308801_7" function="internal">
        <lane id=":1084308801_7_0" index="0" disallow="tram rail_urban rail rail_electric rail_fast ship container cable_car subway aircraft wheelchair scooter drone" speed="3.65" length="4.68" shape="372.75,99.03 371.30,99.07 370.51,98.65 370.37,97.77 370.89,96.42"/>
    </edge>
    <edge id=":1084308801_8" function="internal">
        <lane id=":1084308801_8_0" index="0" disallow="tram rail_urban rail rail_electric rail_fast ship container cable_car subway aircraft wheelchair scooter drone" speed="8.40" length="12.12" shape="359.69,97.31 362.43,98.64 365.21,98.94 368.03,98.19 370.89,96.42"/>
    </edge>
    <edge id=":1084308801_9" function="internal">
        <lane id=":1084308801_9_0" index="0" disallow="tram rail_urban rail rail_electric rail_fast ship container cable_car subway aircraft wheelchair scooter drone" speed="13.89" length="15.87" shape="359.69,97.31 372.82,106.22"/>
    </edge>
    <edge id=":1084308801_10" function="internal">
        <lane id=":1084308801_10_0" index="0" disallow="tram rail_urban rail rail_electric rail_fast ship container cable_car subway aircraft wheelchair scooter drone" speed="7.97" length="4.08" shape="359.69,97.31 362.59,99.95 362.66,100.10"/>
    </edge>
    <edge id=":1084308801_11" function="internal">
        <lane id=":1084308801_11_0" index="0" disallow="tram rail_urban rail rail_electric rail_fast ship container cable_car subway aircraft wheelchair scooter drone" speed="3.65" length="1.44" shape="359.69,97.31 360.24,98.65"/>
    </edge>
    <edge id=":1084308801_18" function="internal">
        <lane id=":1084308801_18_0" index="0" disallow="tram rail_urban rail rail_electric rail_fast ship container cable_car subway aircraft wheelchair scooter drone" speed="7.97" length="10.18" shape="362.66,100.10 363.93,102.87 363.71,106.08 361.92,109.56"/>
    </edge>
    <edge id=":1084308801_19" function="internal">
        <lane id=":1084308801_19_0" index="0" disallow="tram rail_urban rail rail_electric rail_fast ship container cable_car subway aircraft wheelchair scooter drone" speed="3.65" length="3.23" shape="360.24,98.65 360.12,99.53 359.34,99.97 357.90,99.96"/>
    </edge>
    <edge id=":1084308801_12" function="internal">
        <lane id=":1084308801_12_0" index="0" disallow="tram rail_urban rail rail_electric rail_fast ship container cable_car subway aircraft wheelchair scooter drone" speed="6.46" length="9.03" shape="359.30,107.72 360.44,105.51 360.58,103.48 359.73,101.63 357.90,99.96"/>
    </edge>
    <edge id=":1084308801_13" function="internal">
        <lane id=":1084308801_13_0" index="0" disallow="tram rail_urban rail rail_electric rail_fast ship container cable_car subway aircraft wheelchair scooter drone" speed="13.89" length="16.23" shape="359.30,107.72 361.78,104.67 364.71,101.71 367.84,98.93 370.89,96.42"/>
    </edge>
    <edge id=":1084308801_14" function="internal">
        <lane id=":1084308801_14_0" index="0" disallow="tram rail_urban rail rail_electric rail_fast ship container cable_car subway aircraft wheelchair scooter drone" speed="8.18" length="14.64" shape="359.30,107.72 361.97,105.61 365.61,104.66 369.49,104.88 372.82,106.22"/>
    </edge>
    <edge id=":1084308801_15" function="internal">
        <lane id=":1084308801_15_0" index="0" disallow="tram rail_urban rail rail_electric rail_fast ship container cable_car subway aircraft wheelchair scooter drone" speed="3.65" length="4.67" shape="359.30,107.72 360.65,107.20 361.53,107.33 361.96,108.12 361.92,109.56"/>
    </edge>
    <edge id=":1084309783_0" function="internal">
        <lane id=":1084309783_0_0" index="0" disallow="tram rail_urban rail rail_electric rail_fast ship container cable_car subway aircraft wheelchair scooter drone" speed="5.97" length="9.09" shape="415.46,51.06 413.10,49.95 411.17,50.00 409.65,51.21 408.56,53.58"/>
    </edge>
    <edge id=":1084309783_1" function="internal">
        <lane id=":1084309783_1_0" index="0" allow="pedestrian delivery bicycle" speed="6.06" length="2.78" shape="415.46,51.06 413.33,49.29"/>
    </edge>
    <edge id=":1084309783_4" function="internal">
        <lane id=":1084309783_4_0" index="0" allow="pedestrian delivery bicycle" speed="6.06" length="9.41" shape="413.33,49.29 412.45,48.56 411.66,46.47 413.07,44.79 416.70,43.51"/>
    </edge>
    <edge id=":1084309783_2" function="internal">
        <lane id=":1084309783_2_0" index="0" allow="pedestrian delivery bicycle" speed="9.72" length="15.19" shape="405.49,52.66 406.99,49.43 409.35,46.83 412.59,44.86 416.70,43.51"/>
    </edge>
    <edge id=":1084309783_3" function="internal">
        <lane id=":1084309783_3_0" index="0" disallow="tram rail_urban rail rail_electric rail_fast ship container cable_car subway aircraft wheelchair scooter drone" speed="7.58" length="15.44" shape="405.49,52.66 407.35,48.64 409.92,46.59 413.21,46.50 417.22,48.39"/>
    </edge>
    <edge id=":1084309891_0" function="internal">
        <lane id=":1084309891_0_0" index="0" disallow="tram rail_urban rail rail_electric rail_fast ship container cable_car subway aircraft wheelchair scooter drone" speed="3.91" length="2.50" shape="265.09,36.98 264.47,36.68 263.91,36.64 263.38,36.87 262.90,37.35"/>
    </edge>
    <edge id=":1084309891_1" function="internal">
        <lane id=":1084309891_1_0" index="0" disallow="tram rail_urban rail rail_electric rail_fast ship container cable_car subway aircraft wheelchair scooter drone" speed="6.08" length="7.50" shape="260.34,35.44 261.77,33.99 263.34,33.32 265.05,33.43 266.88,34.33"/>
    </edge>
    <edge id=":1084310118_0" function="internal">
        <lane id=":1084310118_0_0" index="0" disallow="tram rail_urban rail rail_electric rail_fast ship container cable_car subway aircraft wheelchair scooter drone" speed="5.53" length="9.46" shape="374.03,177.53 372.83,174.84 371.38,173.79 369.69,174.36 367.75,176.58"/>
    </edge>
    <edge id=":1084310118_1" function="internal">
        <lane id=":1084310118_1_0" index="0" disallow="tram rail_urban rail rail_electric rail_fast ship container cable_car subway aircraft wheelchair scooter drone" speed="13.89" length="21.10" shape="374.03,177.53 367.62,157.42"/>
    </edge>
    <edge id=":1084310118_2" function="internal">
        <lane id=":1084310118_2_0" index="0" disallow="tram rail_urban rail rail_electric rail_fast ship container cable_car subway aircraft wheelchair scooter drone" speed="13.63" length="5.69" shape="374.03,177.53 373.34,172.72 373.40,171.89"/>
    </edge>
    <edge id=":1084310118_3" function="internal">
        <lane id=":1084310118_3_0" index="0" disallow="tram rail_urban rail rail_electric rail_fast ship container cable_car subway aircraft wheelchair scooter drone" speed="3.65" length="1.44" shape="374.03,177.53 374.44,176.15"/>
    </edge>
    <edge id=":1084310118_16" function="internal">
        <lane id=":1084310118_16_0" index="0" disallow="tram rail_urban rail rail_electric rail_fast ship container cable_car subway aircraft wheelchair scooter drone" speed="13.63" length="15.19" shape="373.40,171.89 373.70,167.11 374.97,161.66 377.01,157.30"/>
    </edge>
    <edge id=":1084310118_17" function="internal">
        <lane id=":1084310118_17_0" index="0" disallow="tram rail_urban rail rail_electric rail_fast ship container cable_car subway aircraft wheelchair scooter drone" speed="3.65" length="3.23" shape="374.44,176.15 375.09,175.53 375.97,175.68 377.09,176.59"/>
    </edge>
    <edge id=":1084310118_4" function="internal">
        <lane id=":1084310118_4_0" index="0" disallow="tram rail_urban rail rail_electric rail_fast ship container cable_car subway aircraft wheelchair scooter drone" speed="12.78" length="18.29" shape="379.66,159.11 377.45,163.21 376.28,167.49 376.16,171.95 377.09,176.59"/>
    </edge>
    <edge id=":1084310118_5" function="internal">
        <lane id=":1084310118_5_0" index="0" disallow="tram rail_urban rail rail_electric rail_fast ship container cable_car subway aircraft wheelchair scooter drone" speed="22.22" length="21.14" shape="379.66,159.11 367.75,176.58"/>
    </edge>
    <edge id=":1084310118_6" function="internal">
        <lane id=":1084310118_6_0" index="0" disallow="tram rail_urban rail rail_electric rail_fast ship container cable_car subway aircraft wheelchair scooter drone" speed="7.38" length="5.37" shape="379.66,159.11 376.10,163.14"/>
    </edge>