<?xml version='1.0' encoding='UTF-8'?>
<!-- generated on 2025-01-13 15:43:57 by Eclipse SUMO netconvert Version 1.21.0
<netconvertConfiguration xmlns:xsi="http://www.w3.org/2001/XMLSchema-instance" xsi:noNamespaceSchemaLocation="http://sumo.dlr.de/xsd/netconvertConfiguration.xsd">

    <input>
        <type-files value="/home/w2cnlab/Desktop/Hsien/carla/Co-Simulation/Sumo/util/data/opendrive_netconvert.typ.xml"/>
        <opendrive-files value="../../../Dist/CARLA_Shipping_0.9.15-245-ge8947a47c/LinuxNoEditor/PythonAPI/util/map.xodr"/>
    </input>

    <output>
        <output-file value="/tmp/tmpigwdv9va/map.net.xml"/>
        <output.original-names value="true"/>
    </output>

    <processing>
        <geometry.remove value="true"/>
        <geometry.min-radius.fix value="true"/>
    </processing>

    <tls_building>
        <tls.discard-loaded value="true"/>
    </tls_building>

    <junctions>
        <no-turnarounds.except-deadend value="true"/>
    </junctions>

    <formats>
        <opendrive.import-all-lanes value="true"/>
        <opendrive.curve-resolution value="1"/>
    </formats>

</netconvertConfiguration>
-->
<net xmlns:xsi="http://www.w3.org/2001/XMLSchema-instance" version="1.20" junctionCornerDetail="5" rectangularLaneCut="true" limitTurnSpeed="5.50" xsi:noNamespaceSchemaLocation="http://sumo.dlr.de/xsd/net_file.xsd">
  <!-- <location netOffset="-6643198.06,-15346070.64" convBoundary="0.00,0.00,598.52,581.74" origBoundary="0.000000,0.000000,0.000000,0.000000" projParameter="+proj=tmerc          "/> -->
  <location netOffset="1.52,1.22" convBoundary="0.00,0.00,598.52,581.74" origBoundary="0.000000,0.000000,0.000000,0.000000" projParameter="+proj=tmerc          "/>
  <type id="driving" priority="1" speed="13.89" disallow="pedestrian tram rail_urban rail rail_electric rail_fast ship" width="3.65"/>
  <edge id=":1_0" function="internal">
    <lane id=":1_0_0" index="0" disallow="pedestrian tram rail_urban rail rail_electric rail_fast ship" speed="9.44" length="17.41" width="6.00" shape="312.53,197.98 309.71,197.65 306.60,199.15 303.20,202.49 299.51,207.66">
      <param key="origId" value="116_-1"/>
      <param key="signalID" value="10 11 12 13"/>
    </lane>
  </edge>
  <edge id=":1_1" function="internal">
    <lane id=":1_1_0" index="0" disallow="pedestrian tram rail_urban rail rail_electric rail_fast ship" speed="13.89" length="18.38" width="6.00" shape="312.53,197.98 307.21,196.54 303.17,196.94 299.15,197.29 293.90,195.73">
      <param key="origId" value="117_-1"/>
    </lane>
    <lane id=":1_1_1" index="1" disallow="pedestrian tram rail_urban rail rail_electric rail_fast ship" speed="13.89" length="18.38" width="6.00" shape="312.53,197.98 296.57,190.36">
      <param key="origId" value="118_-1"/>
    </lane>
  </edge>
  <edge id=":1_3" function="internal">
    <lane id=":1_3_0" index="0" disallow="pedestrian tram rail_urban rail rail_electric rail_fast ship" speed="9.80" length="6.95" width="6.00" shape="312.53,197.98 309.56,194.42 309.21,192.13">
      <param key="origId" value="119_-1"/>
    </lane>
  </edge>
  <edge id=":1_4" function="internal">
    <lane id=":1_4_0" index="0" disallow="pedestrian tram rail_urban rail rail_electric rail_fast ship" speed="5.00" length="3.77" width="6.00" shape="312.53,197.98 311.11,195.68 311.07,194.61">
      <param key="origId" value="120_-1"/>
    </lane>
  </edge>
  <edge id=":1_17" function="internal">
    <lane id=":1_17_0" index="0" disallow="pedestrian tram rail_urban rail rail_electric rail_fast ship" speed="9.80" length="15.98" width="6.00" shape="309.21,192.13 308.66,188.63 309.50,182.19 311.75,176.69">
      <param key="origId" value="119_-1"/>
    </lane>
  </edge>
  <edge id=":1_18" function="internal">
    <lane id=":1_18_0" index="0" disallow="pedestrian tram rail_urban rail rail_electric rail_fast ship" speed="5.00" length="4.99" width="6.00" shape="311.07,194.61 311.05,194.00 312.36,192.95 315.03,192.52">
      <param key="origId" value="120_-1"/>
    </lane>
  </edge>
  <edge id=":1_5" function="internal">
    <lane id=":1_5_0" index="0" disallow="pedestrian tram rail_urban rail rail_electric rail_fast ship" speed="7.91" length="14.20" width="6.00" shape="316.83,179.89 314.25,184.59 313.09,188.26 313.35,190.91 315.03,192.52">
      <param key="origId" value="121_-1"/>
    </lane>
  </edge>
  <edge id=":1_6" function="internal">
    <lane id=":1_6_0" index="0" disallow="pedestrian tram rail_urban rail rail_electric rail_fast ship" speed="22.22" length="32.73" width="6.00" shape="316.83,179.89 299.51,207.66">
      <param key="origId" value="122_-1"/>
    </lane>
  </edge>
  <edge id=":1_7" function="internal">
    <lane id=":1_7_0" index="0" disallow="pedestrian tram rail_urban rail rail_electric rail_fast ship" speed="10.85" length="24.05" width="6.00" shape="316.83,179.89 312.68,184.60 307.13,188.50 301.36,190.72 296.57,190.36">
      <param key="origId" value="123_-1"/>
    </lane>
  </edge>
  <edge id=":1_8" function="internal">
    <lane id=":1_8_0" index="0" disallow="pedestrian tram rail_urban rail rail_electric rail_fast ship" speed="5.00" length="8.76" width="6.00" shape="316.83,179.89 314.36,180.99 312.69,180.83 311.82,179.39 311.75,176.69">
      <param key="origId" value="124_-1"/>
    </lane>
  </edge>
  <edge id=":1_9" function="internal">
    <lane id=":1_9_0" index="0" disallow="pedestrian tram rail_urban rail rail_electric rail_fast ship" speed="7.77" length="11.45" width="6.00" shape="301.92,179.62 304.81,180.57 307.42,180.40 309.73,179.10 311.75,176.69">
      <param key="origId" value="125_-1"/>
    </lane>
  </edge>
  <edge id=":1_10" function="internal">
    <lane id=":1_10_0" index="0" disallow="pedestrian tram rail_urban rail rail_electric rail_fast ship" speed="13.89" length="18.71" width="6.00" shape="301.92,179.62 306.27,182.82 308.43,186.16 310.61,189.46 315.03,192.52">
      <param key="origId" value="126_-1"/>
    </lane>
  </edge>
  <edge id=":1_11" function="internal">
    <lane id=":1_11_0" index="0" disallow="pedestrian tram rail_urban rail rail_electric rail_fast ship" speed="10.16" length="5.80" width="6.00" shape="299.24,184.99 302.18,188.79 302.31,189.77">
      <param key="origId" value="127_-1"/>
    </lane>
  </edge>
  <edge id=":1_12" function="internal">
    <lane id=":1_12_0" index="0" disallow="pedestrian tram rail_urban rail rail_electric rail_fast ship" speed="5.00" length="3.42" width="6.00" shape="299.24,184.99 300.59,187.33 300.59,188.05">
      <param key="origId" value="128_-1"/>
    </lane>
  </edge>
  <edge id=":1_19" function="internal">
    <lane id=":1_19_0" index="0" disallow="pedestrian tram rail_urban rail rail_electric rail_fast ship" speed="10.16" length="18.49" width="6.00" shape="302.31,189.77 302.96,194.96 301.95,201.81 299.51,207.66">
      <param key="origId" value="127_-1"/>
    </lane>
  </edge>
  <edge id=":1_20" function="internal">
    <lane id=":1_20_0" index="0" disallow="pedestrian tram rail_urban rail rail_electric rail_fast ship" speed="5.00" length="5.35" width="6.00" shape="300.59,188.05 300.59,189.01 299.25,190.02 296.57,190.36">
      <param key="origId" value="128_-1"/>
    </lane>
  </edge>
  <edge id=":1_13" function="internal">
    <lane id=":1_13_0" index="0" disallow="pedestrian tram rail_urban rail rail_electric rail_fast ship" speed="6.90" length="10.09" width="6.00" shape="294.43,204.47 295.92,201.50 296.33,199.06 295.65,197.13 293.90,195.73">
      <param key="origId" value="129_-1"/>
    </lane>
  </edge>
  <edge id=":1_14" function="internal">
    <lane id=":1_14_0" index="0" disallow="pedestrian tram rail_urban rail rail_electric rail_fast ship" speed="22.22" length="32.74" width="6.00" shape="294.43,204.47 311.75,176.69">
      <param key="origId" value="130_-1"/>
    </lane>
  </edge>
  <edge id=":1_15" function="internal">
    <lane id=":1_15_0" index="0" disallow="pedestrian tram rail_urban rail rail_electric rail_fast ship" speed="11.16" length="24.95" width="6.00" shape="294.43,204.47 298.72,199.44 304.41,195.10 310.26,192.46 315.03,192.52">
      <param key="origId" value="131_-1"/>
    </lane>
  </edge>
  <edge id=":1_16" function="internal">
    <lane id=":1_16_0" index="0" disallow="pedestrian tram rail_urban rail rail_electric rail_fast ship" speed="5.00" length="8.76" width="6.00" shape="294.43,204.47 296.90,203.36 298.57,203.53 299.44,204.96 299.51,207.66">
      <param key="origId" value="132_-1"/>
      <param key="signalID" value="3"/>
    </lane>
  </edge>
  <edge id=":2_0" function="internal">
    <lane id=":2_0_0" index="0" allow="pedestrian" speed="8.87" length="23.95" width="2.80" shape="80.88,93.11 74.77,82.69 74.69,75.20 80.64,70.64 92.60,69.02">
      <param key="origId" value="115_-2"/>
      <param key="signalID" value="12"/>
    </lane>
    <lane id=":2_0_1" index="1" disallow="pedestrian tram rail_urban rail rail_electric rail_fast ship" speed="5.00" length="23.95" width="6.00" shape="85.43,83.76 84.06,81.43 84.04,79.75 85.37,78.73 88.05,78.37">
      <param key="origId" value="115_-1"/>
      <param key="signalID" value="12"/>
    </lane>
  </edge>
  <edge id=":3_0" function="internal">
    <lane id=":3_0_0" index="0" disallow="pedestrian tram rail_urban rail rail_electric rail_fast ship" speed="7.48" length="11.22" width="6.00" shape="267.58,272.03 264.86,271.24 262.45,271.64 260.33,273.21 258.51,275.97">
      <param key="origId" value="96_-1"/>
      <param key="signalID" value="2 3 4 5"/>
    </lane>
  </edge>
  <edge id=":3_1" function="internal">
    <lane id=":3_1_0" index="0" disallow="pedestrian tram rail_urban rail rail_electric rail_fast ship" speed="13.89" length="16.98" width="6.00" shape="267.58,272.03 252.26,264.72">
      <param key="origId" value="97_-2"/>
    </lane>
    <lane id=":3_1_1" index="1" disallow="pedestrian tram rail_urban rail rail_electric rail_fast ship" speed="13.89" length="16.98" width="6.00" shape="270.18,266.63 254.86,259.31">
      <param key="origId" value="97_-1"/>
    </lane>
  </edge>
  <edge id=":3_3" function="internal">
    <lane id=":3_3_0" index="0" disallow="pedestrian tram rail_urban rail rail_electric rail_fast ship" speed="10.14" length="5.92" width="6.00" shape="270.18,266.63 267.14,262.82 267.00,261.78">
      <param key="origId" value="98_-1"/>
    </lane>
  </edge>
  <edge id=":3_4" function="internal">
    <lane id=":3_4_0" index="0" disallow="pedestrian tram rail_urban rail rail_electric rail_fast ship" speed="5.00" length="3.45" width="6.00" shape="270.18,266.63 268.81,264.30 268.80,263.56">
      <param key="origId" value="99_-1"/>
    </lane>
  </edge>
  <edge id=":3_18" function="internal">
    <lane id=":3_18_0" index="0" disallow="pedestrian tram rail_urban rail rail_electric rail_fast ship" speed="10.14" length="18.52" width="6.00" shape="267.00,261.78 266.29,256.63 267.26,249.75 269.68,243.86">
      <param key="origId" value="98_-1"/>
    </lane>
  </edge>
  <edge id=":3_19" function="internal">
    <lane id=":3_19_0" index="0" disallow="pedestrian tram rail_urban rail rail_electric rail_fast ship" speed="5.00" length="5.32" width="6.00" shape="268.80,263.56 268.78,262.63 270.11,261.60 272.79,261.22">
      <param key="origId" value="99_-1"/>
    </lane>
  </edge>
  <edge id=":3_5" function="internal">
    <lane id=":3_5_0" index="0" disallow="pedestrian tram rail_urban rail rail_electric rail_fast ship" speed="6.90" length="10.16" width="6.00" shape="274.76,247.06 273.27,250.04 272.88,252.49 273.59,254.42 275.39,255.82">
      <param key="origId" value="100_-1"/>
    </lane>
  </edge>
  <edge id=":3_6" function="internal">
    <lane id=":3_6_0" index="0" disallow="pedestrian tram rail_urban rail rail_electric rail_fast ship" speed="22.22" length="33.17" width="6.00" shape="274.76,247.06 271.41,252.73 266.47,261.42 261.61,270.16 258.51,275.97">
      <param key="origId" value="101_-1"/>
    </lane>
  </edge>
  <edge id=":3_7" function="internal">
    <lane id=":3_7_0" index="0" disallow="pedestrian tram rail_urban rail rail_electric rail_fast ship" speed="10.98" length="24.44" width="6.00" shape="274.76,247.06 270.56,252.07 265.01,256.50 259.36,259.28 254.86,259.31">
      <param key="origId" value="102_-1"/>
    </lane>
  </edge>
  <edge id=":3_8" function="internal">
    <lane id=":3_8_0" index="0" disallow="pedestrian tram rail_urban rail rail_electric rail_fast ship" speed="5.00" length="8.76" width="6.00" shape="274.76,247.06 272.29,248.16 270.62,248.00 269.75,246.57 269.68,243.86">
      <param key="origId" value="103_-1"/>
      <param key="signalID" value="13"/>
    </lane>
  </edge>
  <edge id=":3_9" function="internal">
    <lane id=":3_9_0" index="0" disallow="pedestrian tram rail_urban rail rail_electric rail_fast ship" speed="7.90" length="11.80" width="6.00" shape="260.07,248.50 262.60,249.14 265.04,248.58 267.40,246.82 269.68,243.86">
      <param key="origId" value="104_-1"/>
    </lane>
  </edge>
  <edge id=":3_10" function="internal">
    <lane id=":3_10_0" index="0" disallow="pedestrian tram rail_urban rail rail_electric rail_fast ship" speed="13.89" length="16.98" width="6.00" shape="260.07,248.50 275.39,255.82">
      <param key="origId" value="105_-2"/>
    </lane>
    <lane id=":3_10_1" index="1" disallow="pedestrian tram rail_urban rail rail_electric rail_fast ship" speed="13.89" length="16.98" width="6.00" shape="257.46,253.91 272.79,261.22">
      <param key="origId" value="105_-1"/>
    </lane>
  </edge>
  <edge id=":3_12" function="internal">
    <lane id=":3_12_0" index="0" disallow="pedestrian tram rail_urban rail rail_electric rail_fast ship" speed="10.26" length="5.61" width="6.00" shape="257.46,253.91 260.14,257.42 260.32,258.59">
      <param key="origId" value="106_-1"/>
    </lane>
  </edge>
  <edge id=":3_13" function="internal">
    <lane id=":3_13_0" index="0" disallow="pedestrian tram rail_urban rail rail_electric rail_fast ship" speed="5.00" length="3.45" width="6.00" shape="257.46,253.91 258.84,256.23 258.85,256.98">
      <param key="origId" value="107_-1"/>
    </lane>
  </edge>
  <edge id=":3_20" function="internal">
    <lane id=":3_20_0" index="0" disallow="pedestrian tram rail_urban rail rail_electric rail_fast ship" speed="10.26" length="17.76" width="6.00" shape="260.32,258.59 261.04,263.35 260.42,270.07 258.51,275.97">
      <param key="origId" value="106_-1"/>
    </lane>
  </edge>
  <edge id=":3_21" function="internal">
    <lane id=":3_21_0" index="0" disallow="pedestrian tram rail_urban rail rail_electric rail_fast ship" speed="5.00" length="5.32" width="6.00" shape="258.85,256.98 258.86,257.91 257.54,258.94 254.86,259.31">
      <param key="origId" value="107_-1"/>
    </lane>
  </edge>
  <edge id=":3_14" function="internal">
    <lane id=":3_14_0" index="0" disallow="pedestrian tram rail_urban rail rail_electric rail_fast ship" speed="6.97" length="9.71" width="6.00" shape="253.14,273.29 254.31,270.29 254.56,267.86 253.87,266.01 252.26,264.72">
      <param key="origId" value="108_-1"/>
    </lane>
  </edge>
  <edge id=":3_15" function="internal">
    <lane id=":3_15_0" index="0" disallow="pedestrian tram rail_urban rail rail_electric rail_fast ship" speed="22.22" length="33.76" width="6.00" shape="253.14,273.29 256.29,267.40 261.25,258.49 266.29,249.62 269.68,243.86">
      <param key="origId" value="109_-1"/>
    </lane>
  </edge>
  <edge id=":3_16" function="internal">
    <lane id=":3_16_0" index="0" disallow="pedestrian tram rail_urban rail rail_electric rail_fast ship" speed="10.60" length="24.49" width="6.00" shape="253.14,273.29 256.89,268.13 262.19,263.69 267.88,261.03 272.79,261.22">
      <param key="origId" value="110_-1"/>
    </lane>
  </edge>
  <edge id=":3_17" function="internal">
    <lane id=":3_17_0" index="0" disallow="pedestrian tram rail_urban rail rail_electric rail_fast ship" speed="5.00" length="8.76" width="6.00" shape="253.14,273.29 255.49,271.95 257.16,271.95 258.17,273.29 258.51,275.97">
      <param key="origId" value="111_-1"/>
    </lane>
  </edge>
  <edge id=":4_0" function="internal">
    <lane id=":4_0_0" index="0" allow="pedestrian" speed="8.87" length="23.95" width="2.80" shape="-5.65,141.75 -11.68,131.29 -11.71,123.79 -5.73,119.28 6.25,117.74">
      <param key="origId" value="112_-2"/>
      <param key="signalID" value="4"/>
    </lane>
    <lane id=":4_0_1" index="1" disallow="pedestrian tram rail_urban rail rail_electric rail_fast ship" speed="5.00" length="23.95" width="6.00" shape="-1.03,132.43 -2.38,130.09 -2.39,128.41 -1.05,127.40 1.63,127.06">
      <param key="origId" value="112_-1"/>
      <param key="signalID" value="4"/>
    </lane>
  </edge>
  <edge id=":5_0" function="internal">
    <lane id=":5_0_0" index="0" allow="pedestrian" speed="8.87" length="23.95" width="2.80" shape="568.75,396.48 574.91,406.87 575.03,414.36 569.12,418.95 557.16,420.64">
      <param key="origId" value="95_-2"/>
      <param key="signalID" value="2"/>
    </lane>
    <lane id=":5_0_1" index="1" disallow="pedestrian tram rail_urban rail rail_electric rail_fast ship" speed="5.00" length="23.95" width="6.00" shape="564.25,405.86 565.63,408.18 565.66,409.86 564.33,410.89 561.66,411.27">
      <param key="origId" value="95_-1"/>
      <param key="signalID" value="2"/>
    </lane>
  </edge>
  <edge id=":6_0" function="internal">
    <lane id=":6_0_0" index="0" disallow="pedestrian tram rail_urban rail rail_electric rail_fast ship" speed="5.00" length="8.76" width="6.00" shape="105.09,582.78 102.74,584.12 101.07,584.12 100.06,582.78 99.72,580.10">
      <param key="origId" value="113_-1"/>
      <param key="signalID" value="5"/>
    </lane>
  </edge>
  <edge id=":7_0" function="internal">
    <lane id=":7_0_0" index="0" disallow="pedestrian tram rail_urban rail rail_electric rail_fast ship" speed="5.00" length="8.76" width="6.00" shape="423.88,-1.29 426.34,-2.40 428.01,-2.23 428.88,-0.80 428.95,1.91">
      <param key="origId" value="114_-1"/>
      <param key="signalID" value="11"/>
    </lane>
  </edge>
  <edge id=":8_0" function="internal">
    <lane id=":8_0_0" index="0" allow="pedestrian" speed="6.72" length="15.19" width="2.80" shape="601.59,334.97 604.84,340.80 604.80,344.94 601.47,347.38 594.84,348.14">
      <param key="origId" value="94_-2"/>
      <param key="signalID" value="10"/>
    </lane>
    <lane id=":8_0_1" index="1" disallow="pedestrian tram rail_urban rail rail_electric rail_fast ship" speed="5.00" length="15.19" width="6.00" shape="599.59,338.89 600.90,341.25 600.89,342.93 599.53,343.92 596.85,344.23">
      <param key="origId" value="94_-1"/>
      <param key="signalID" value="10"/>
    </lane>
  </edge>
  <edge id="-80" from="1" to="2" priority="1" type="sidewalk|driving|driving" shape="297.91,187.67 297.00,187.22 296.17,186.80 295.26,186.34 294.29,185.84 293.30,185.33 291.36,184.32 289.62,183.42 196.70,134.81 196.00,134.45 195.21,134.04 193.45,133.14 191.51,132.15 189.53,131.15 187.59,130.18 185.81,129.30 185.02,128.90 184.30,128.56 87.99,81.67">
    <lane id="-80_0" index="0" allow="pedestrian" speed="13.89" length="236.50" width="2.80" shape="291.93,199.67 290.99,199.20 290.10,198.75 289.15,198.27 288.17,197.76 287.15,197.24 285.18,196.22 283.42,195.30 190.49,146.69 189.83,146.34 189.09,145.96 187.35,145.07 185.46,144.11 183.50,143.12 181.60,142.17 179.86,141.30 179.11,140.93 178.43,140.60 80.88,93.11" type="sidewalk">
      <param key="origId" value="80_-3"/>
    </lane>
    <lane id="-80_1" index="1" disallow="pedestrian tram rail_urban rail rail_electric rail_fast ship" speed="13.89" length="236.50" width="6.00" shape="293.90,195.73 292.96,195.27 292.09,194.83 291.16,194.35 290.18,193.85 289.17,193.33 287.21,192.31 285.46,191.40 192.53,142.79 191.85,142.44 191.10,142.05 189.35,141.15 187.45,140.18 185.48,139.19 183.57,138.23 181.82,137.36 181.05,136.98 180.36,136.64 82.80,89.16" type="driving">
      <param key="origId" value="80_-2"/>
    </lane>
    <lane id="-80_2" index="2" disallow="pedestrian tram rail_urban rail rail_electric rail_fast ship" speed="13.89" length="236.50" width="6.00" shape="296.57,190.36 295.65,189.90 294.81,189.48 293.89,189.01 292.92,188.51 291.93,188.00 289.97,186.99 288.23,186.08 195.31,137.47 194.62,137.11 193.84,136.71 192.08,135.81 190.16,134.83 188.18,133.83 186.25,132.86 184.48,131.98 183.70,131.60 182.99,131.25 85.43,83.76" type="driving">
      <param key="origId" value="80_-1"/>
    </lane>
  </edge>
  <edge id="-81" from="3" to="4" priority="1" type="sidewalk|driving|driving" shape="256.16,256.61 255.31,256.20 254.53,255.82 253.68,255.40 251.88,254.51 248.69,252.93 138.09,198.07 12.79,135.94 1.52,130.35">
    <lane id="-81_0" index="0" allow="pedestrian" speed="13.89" length="285.68" width="2.80" shape="250.35,268.68 249.46,268.26 248.64,267.85 247.75,267.42 245.92,266.51 242.74,264.93 132.14,210.08 6.84,147.94 -5.65,141.75" type="sidewalk">
      <param key="origId" value="81_-3"/>
    </lane>
    <lane id="-81_1" index="1" disallow="pedestrian tram rail_urban rail rail_electric rail_fast ship" speed="13.89" length="285.68" width="6.00" shape="252.26,264.72 251.38,264.30 250.57,263.90 249.70,263.47 247.88,262.57 244.69,260.99 134.09,206.13 8.79,144.00 -3.70,137.81" type="driving">
      <param key="origId" value="81_-2"/>
    </lane>
    <lane id="-81_2" index="2" disallow="pedestrian tram rail_urban rail rail_electric rail_fast ship" speed="13.89" length="285.68" width="6.00" shape="254.86,259.31 254.00,258.90 253.21,258.51 252.35,258.09 250.54,257.20 247.36,255.61 136.76,200.76 11.46,138.63 -1.03,132.43" type="driving">
      <param key="origId" value="81_-1"/>
    </lane>
  </edge>
  <edge id="-82" from="5" to="3" priority="1" type="sidewalk|driving|driving" shape="561.69,407.95 557.07,405.74 550.53,402.59 546.79,400.78 512.29,384.11 501.29,378.80 493.18,374.89 491.33,373.99 489.70,373.20 487.49,372.12 483.76,370.30 481.76,369.32 479.82,368.36 478.04,367.48 476.53,366.73 404.46,330.65 396.82,326.82 329.67,293.24 325.96,291.37 322.04,289.40 318.77,287.75 278.91,267.64 275.75,266.04 274.85,265.58 273.96,265.14 273.11,264.72 272.34,264.34 271.49,263.93">
    <lane id="-82_0" index="0" allow="pedestrian" speed="13.89" length="325.40" width="2.80" shape="557.16,420.64 551.26,417.81 544.71,414.66 540.96,412.85 506.45,396.17 495.47,390.86 487.36,386.96 485.50,386.05 483.84,385.25 481.60,384.16 477.86,382.33 475.85,381.34 473.89,380.37 472.08,379.48 470.55,378.72 398.47,342.63 390.83,338.81 323.68,305.22 319.95,303.35 316.02,301.37 312.73,299.72 272.87,279.60 269.70,278.00 268.83,277.56 267.97,277.13 267.17,276.73 266.47,276.38 265.67,276.00" type="sidewalk">
      <param key="origId" value="82_-3"/>
    </lane>
    <lane id="-82_1" index="1" disallow="pedestrian tram rail_urban rail rail_electric rail_fast ship" speed="13.89" length="325.40" width="6.00" shape="559.06,416.67 553.17,413.85 546.62,410.69 542.87,408.89 508.37,392.21 497.38,386.90 489.27,382.99 487.41,382.09 485.76,381.29 483.54,380.21 479.80,378.38 477.79,377.39 475.83,376.43 474.04,375.54 472.51,374.78 400.44,338.69 392.80,334.87 325.65,301.28 321.93,299.42 317.99,297.44 314.71,295.79 274.86,275.67 271.69,274.07 270.80,273.63 269.93,273.19 269.12,272.78 268.40,272.43 267.58,272.03" type="driving">
      <param key="origId" value="82_-2"/>
    </lane>
    <lane id="-82_2" index="2" disallow="pedestrian tram rail_urban rail rail_electric rail_fast ship" speed="13.89" length="325.40" width="6.00" shape="561.66,411.27 555.77,408.44 549.22,405.29 545.48,403.48 510.98,386.81 499.99,381.50 491.88,377.59 490.03,376.69 488.39,375.90 486.17,374.82 482.44,372.99 480.44,372.01 478.49,371.05 476.70,370.17 475.19,369.41 403.12,333.33 395.48,329.50 328.33,295.92 324.62,294.06 320.69,292.08 317.41,290.43 277.56,270.32 274.39,268.72 273.50,268.26 272.62,267.82 271.78,267.41 271.02,267.03 270.18,266.63" type="driving">
      <param key="origId" value="82_-1"/>
    </lane>
  </edge>
  <edge id="-83" from="3" to="6" priority="1" type="driving" shape="255.82,274.63 243.63,299.02 234.74,316.82 209.64,367.00 199.36,387.56 177.22,431.81 153.38,479.49 112.40,561.42 106.94,572.36 103.01,580.23">
    <lane id="-83_0" index="0" disallow="pedestrian tram rail_urban rail rail_electric rail_fast ship" speed="22.22" length="343.03" width="6.00" shape="258.51,275.97 246.32,300.36 237.42,318.16 212.32,368.34 202.04,388.90 179.90,433.16 156.06,480.84 115.09,562.77 109.62,573.70 105.09,582.78" type="driving">
      <param key="origId" value="83_-1"/>
    </lane>
  </edge>
  <edge id="-84" from="1" to="3" priority="1" type="driving" shape="296.97,206.07 272.22,245.46">
    <lane id="-84_0" index="0" disallow="pedestrian tram rail_urban rail rail_electric rail_fast ship" speed="22.22" length="46.52" width="6.00" shape="299.51,207.66 274.76,247.06" type="driving">
      <param key="origId" value="84_-1"/>
    </lane>
  </edge>
  <edge id="-85" from="7" to="1" priority="1" type="driving" shape="425.86,1.19 417.54,14.39 411.02,24.75 381.75,71.20 314.29,178.29">
    <lane id="-85_0" index="0" disallow="pedestrian tram rail_urban rail rail_electric rail_fast ship" speed="22.22" length="210.35" width="6.00" shape="428.95,1.91 420.08,15.99 413.55,26.35 384.28,72.80 316.83,179.89" type="driving">
      <param key="origId" value="85_-1"/>
    </lane>
  </edge>
  <edge id="-86" from="8" to="1" priority="1" type="sidewalk|driving" shape="597.05,340.96 581.75,333.12 562.98,323.49 555.38,319.58 320.47,198.67 319.79,198.32 317.23,196.98 316.33,196.52 315.46,196.07 314.67,195.68 313.98,195.35 313.80,195.26">
    <lane id="-86_0" index="0" allow="pedestrian" speed="13.89" length="319.65" width="2.80" shape="594.84,348.14 578.37,339.70 559.60,330.07 552.00,326.16 317.08,205.25 316.37,204.88 313.81,203.55 312.95,203.10 312.13,202.68 311.41,202.32 310.79,202.02 310.67,201.97" type="sidewalk">
      <param key="origId" value="86_-2"/>
    </lane>
    <lane id="-86_1" index="1" disallow="pedestrian tram rail_urban rail rail_electric rail_fast ship" speed="13.89" length="319.65" width="6.00" shape="596.85,344.23 580.38,335.79 561.61,326.16 554.01,322.25 319.09,201.34 318.40,200.98 315.85,199.64 314.96,199.18 314.11,198.75 313.34,198.37 312.69,198.05 312.53,197.98" type="driving">
      <param key="origId" value="86_-1"/>
    </lane>
  </edge>
  <edge id="-87" from="2" to="1" priority="1" type="sidewalk|driving|driving" shape="87.99,81.67 184.30,128.56 185.02,128.90 185.81,129.30 187.59,130.18 189.53,131.15 191.51,132.15 193.45,133.14 195.21,134.04 196.00,134.45 196.70,134.81 289.60,183.41 291.34,184.31 293.29,185.33 294.28,185.84 295.25,186.33 296.16,186.80 297.00,187.22 297.91,187.67">
    <lane id="-87_0" index="0" allow="pedestrian" speed="13.89" length="236.65" width="2.80" shape="92.60,69.02 190.17,116.51 190.93,116.88 191.76,117.29 193.58,118.19 195.55,119.18 197.57,120.20 199.54,121.20 201.34,122.12 202.17,122.55 202.90,122.93 295.81,171.53 297.51,172.42 299.44,173.42 300.41,173.92 301.35,174.40 302.23,174.85 303.00,175.24 303.88,175.68" type="sidewalk">
      <param key="origId" value="87_-3"/>
    </lane>
    <lane id="-87_1" index="1" disallow="pedestrian tram rail_urban rail rail_electric rail_fast ship" speed="13.89" length="236.65" width="6.00" shape="90.68,72.97 188.24,120.46 188.99,120.83 189.81,121.23 191.61,122.13 193.57,123.11 195.58,124.12 197.54,125.12 199.33,126.04 200.14,126.46 200.87,126.84 293.77,175.43 295.48,176.33 297.42,177.33 298.40,177.83 299.34,178.32 300.24,178.77 301.03,179.18 301.92,179.62" type="driving">
      <param key="origId" value="87_-2"/>
    </lane>
    <lane id="-87_2" index="2" disallow="pedestrian tram rail_urban rail rail_electric rail_fast ship" speed="13.89" length="236.65" width="6.00" shape="88.05,78.37 185.62,125.86 186.34,126.21 187.15,126.61 188.93,127.50 190.87,128.47 192.87,129.48 194.81,130.46 196.58,131.37 197.38,131.78 198.09,132.15 290.99,180.75 292.72,181.65 294.67,182.66 295.65,183.17 296.61,183.66 297.52,184.12 298.34,184.54 299.24,184.99" type="driving">
      <param key="origId" value="87_-1"/>
    </lane>
  </edge>
  <edge id="-88" from="4" to="3" priority="1" type="sidewalk|driving|driving" shape="1.52,130.35 12.79,135.94 143.97,200.99 248.67,252.92 251.87,254.50 253.67,255.40 254.53,255.82 255.31,256.20 256.16,256.61">
    <lane id="-88_0" index="0" allow="pedestrian" speed="13.89" length="285.49" width="2.80" shape="6.25,117.74 18.75,123.93 149.92,188.98 254.63,240.91 257.82,242.50 259.61,243.38 260.42,243.78 261.15,244.14 261.98,244.54" type="sidewalk">
      <param key="origId" value="88_-3"/>
    </lane>
    <lane id="-88_1" index="1" disallow="pedestrian tram rail_urban rail rail_electric rail_fast ship" speed="13.89" length="285.49" width="6.00" shape="4.30,121.68 16.79,127.88 147.96,192.92 252.67,244.86 255.87,246.44 257.66,247.33 258.49,247.73 259.23,248.10 260.07,248.50" type="driving">
      <param key="origId" value="88_-2"/>
    </lane>
    <lane id="-88_2" index="2" disallow="pedestrian tram rail_urban rail rail_electric rail_fast ship" speed="13.89" length="285.49" width="6.00" shape="1.63,127.06 14.13,133.25 145.30,198.30 250.01,250.23 253.20,251.82 255.00,252.71 255.85,253.12 256.61,253.50 257.46,253.91" type="driving">
      <param key="origId" value="88_-1"/>
    </lane>
  </edge>
  <edge id="-89" from="3" to="5" priority="1" type="sidewalk|driving|driving" shape="271.49,263.93 272.34,264.34 273.11,264.71 273.95,265.13 274.83,265.58 275.73,266.03 278.88,267.63 318.77,287.75 322.04,289.40 325.96,291.37 329.67,293.24 398.60,327.71 406.24,331.53 476.53,366.73 478.04,367.48 479.82,368.36 481.76,369.32 483.76,370.30 487.49,372.12 489.70,373.20 491.33,373.99 493.18,374.89 501.29,378.80 512.29,384.11 545.27,400.05 548.57,401.65 552.53,403.55 557.07,405.74 561.69,407.95">